/*--------------------------------*- C++ -*----------------------------------*\
| =========                 |                                                 |
| \\      /  F ield         | OpenFOAM: The Open Source CFD Toolbox           |
|  \\    /   O peration     | Version:  2.3.0                                 |
|   \\  /    A nd           | Web:      www.OpenFOAM.com                      |
|    \\/     M anipulation  |                                                 |
\*---------------------------------------------------------------------------*/
FoamFile
{
    version     2.0;
    format      ascii;
    class       volVectorField;
    object      U;
}
// * * * * * * * * * * * * * * * * * * * * * * * * * * * * * * * * * * * * * //

dimensions      [0 1 -1 0 0 0 0];

internalField   uniform (0 0 0);

boundaryField
{
    inlet           
    {
        type            zeroGradient;
    }
    outlet          
    {
        type            zeroGradient;
    }

    lowerWall       
    {
        type            fixedValue;
        value           uniform (0 0 0);
    }

    upperWall       
    {
        type            fixedValue;
	value		uniform (0.027 0 0); //Velocity value imposed at the top wall
    }

    frontAndBack    
    {
        type            empty;
    }
}

// ************************************************************************* //
