/*--------------------------------*- C++ -*----------------------------------*\
| =========                 |                                                 |
| \\      /  F ield         | OpenFOAM: The Open Source CFD Toolbox           |
|  \\    /   O peration     | Version:  2.3.0                                 |
|   \\  /    A nd           | Web:      www.OpenFOAM.com                      |
|    \\/     M anipulation  |                                                 |
\*---------------------------------------------------------------------------*/
FoamFile
{
    version     2.0;
    format      ascii;
    class       dictionary;
    location    "system";
    object      controlDict;
}
// * * * * * * * * * * * * * * * * * * * * * * * * * * * * * * * * * * * * * //

application     SbmBloodTubeFoam;

startFrom       latestTime;

startTime       3.5;

stopAt          endTime;

endTime         10.0;

deltaT          0.000001;

writeControl    timeStep;

writeInterval   500000;

purgeWrite      0;

writeFormat     ascii;

writePrecision  6;

writeCompression uncompressed;

timeFormat      general;

timePrecision   6;

runTimeModifiable yes;

//libs ( "libOpenFOAM.so" "libgroovyBC.so" ) ;


// ************************************************************************* //
functions
    {
    #includeFunc residuals
    }
// ************************************************************************* //
